REMARK  0 active torsions:
REMARK  status: ('A' for Active; 'I' for Inactive)
ROOT
HETATM    1  H           1      -3.956  10.816  24.019  0.00  0.00     0.174 HD
HETATM    2  H           1      -2.866  11.406  22.695  0.00  0.00     0.174 HD
HETATM    3  H           1       2.752   8.662  27.677  0.00  0.00     0.162 HD
HETATM    4  O           1       2.196   8.206  24.281  0.00  0.00    -0.350 OA
HETATM    5  C           1       3.101   7.023  28.981  0.00  0.00     0.123 C 
HETATM    6  C           1       3.002   5.824  28.008  0.00  0.00     0.020 C 
HETATM    7  C           1       2.804   6.300  26.557  0.00  0.00     0.002 C 
HETATM    8  C           1       2.776   5.232  25.462  0.00  0.00     0.002 C 
HETATM    9  C           1       2.115   5.769  24.173  0.00  0.00     0.027 C 
HETATM   10  C           1       2.715   7.069  23.620  0.00  0.00     0.175 C 
HETATM   11  N           1      -2.991  10.931  23.623  0.00  0.00    -0.231 N 
HETATM   12 Cl           1       0.552  12.838  22.714  0.00  0.00    -0.083 Cl
HETATM   13 Cl           1       5.326  11.064  21.589  0.00  0.00    -0.084 Cl
HETATM   14  C           1       2.410   9.447  23.703  0.00  0.00     0.084 A 
HETATM   15  C           1       3.572   9.688  23.060  0.00  0.00     0.061 A 
HETATM   16  C           1       3.808  10.810  22.372  0.00  0.00     0.038 A 
HETATM   17  C           1       2.832  11.717  22.276  0.00  0.00     0.048 A 
HETATM   18  C           1       1.655  11.500  22.886  0.00  0.00     0.051 A 
HETATM   19  C           1       1.428  10.394  23.642  0.00  0.00     0.049 A 
HETATM   20  O           1       0.403   7.694  29.523  0.00  0.00    -0.267 OA
HETATM   21  N           1       2.317   8.129  28.427  0.00  0.00    -0.356 N 
HETATM   22  C           1       0.960   8.216  28.583  0.00  0.00     0.258 C 
HETATM   23  S           1      -1.133   8.885  27.349  0.00  0.00    -0.063 SA
HETATM   24  C           1       0.324   8.789  27.519  0.00  0.00     0.075 A 
HETATM   25  C           1       0.949   9.286  26.438  0.00  0.00     0.041 A 
HETATM   26  C           1       0.242  10.205  24.280  0.00  0.00     0.103 A 
HETATM   27  N           1      -0.827  10.646  23.754  0.00  0.00    -0.061 NA
HETATM   28  C           1       0.068   9.666  25.504  0.00  0.00     0.032 A 
HETATM   29  C           1      -1.159   9.521  26.026  0.00  0.00     0.130 A 
HETATM   30  N           1      -2.164   9.923  25.375  0.00  0.00    -0.055 NA
HETATM   31  C           1      -1.982  10.496  24.260  0.00  0.00     0.721 A 
ENDROOT
TORSDOF 0
